13
Phenol; structure form HCP92; l
C -1.046085 -0.892147 -0.000000
C 0.257414 -1.400049 0.000000
C 1.331097 -0.503372 -0.000000
C 1.091601 0.874901 -0.000000
C -0.121202 1.347367 0.000000
C -1.230130 0.494536 0.000000
H -1.874522 -1.578781 0.001032
H 0.431625 -2.467932 0.001287
H 2.336451 -0.886828 0.000832
H 1.937051 1.553332 -0.000803
O -0.312498 2.697885 -0.001272
H -2.244385 0.877082 -0.000405
H -1.251130 2.879281 -0.002039
