11
Pyridine; expoerimental from HCP92; l
N 0.000000 0.000000 0.000000
C -0.476428 -1.252444 0.000000
C -0.903103 0.989952 0.000000
C -2.282876 0.784403 0.000000
C -1.835282 -1.567988 0.000000
C -2.760265 -0.525306 0.000000
H -0.532213 2.008528 0.000000
H 0.266630 -2.041697 0.000000
H -2.958369 1.628364 0.000000
H -2.153556 -2.601071 0.000000
H -3.818275 -0.726658 0.000000
