11
Cyclopentadiene; experimental structure from HCP92; l
C 0.735000 0.000000 0.000000
C -0.735000 0.000000 0.000000
C 1.180760 0.000000 1.265805
C -1.180760 0.000000 1.265805
C -0.003091 0.000000 2.209296
H 2.228506 0.000000 1.566354
H 1.364644 0.000000 -0.889746
H -1.364960 0.000000 -0.889523
H -2.228838 0.000000 1.565193
H -0.001086 0.885447 2.844969
H -0.005702 -0.882815 2.848618
