16
Cyclooctatetraene; experimental structure from krummli08, l
C -0.2627 -1.6663  0.3833
C  1.0331 -1.3409  0.3827
C -1.0297  1.3407  0.3845
C  0.2630  1.6666  0.3835
C -1.3424 -1.0272 -0.3796
C  1.6770 -0.2635 -0.3837
C -1.6841  0.2615 -0.3911
C  1.3455  1.0312 -0.3823
H -0.5690 -2.5492  0.9659
H  1.7214 -1.9720  0.9656
H -1.7184  1.9710  0.9702
H  0.5706  2.5481  0.9698
H -1.9688 -1.7275 -0.9575
H  2.5603 -0.5678 -0.9650
H -2.5689  0.5611 -0.9710
H  1.9751  1.7236 -0.9613 
