14
Aniline; Structure from HCP92; l
C -1.086143 -0.870526 0.000000
C 0.210840 -1.375886 0.000000
C 1.296883 -0.505360 0.000000
C 1.086142 0.870526 0.000000
C -0.210841 1.375786 0.000000
C -1.296983 0.505261 0.000000
H -1.932704 -1.548451 0.000000
H 0.374980 -2.447943 0.000000
H 2.307474 -0.899002 0.000000
H 1.932383 1.548850 0.000000
H -2.307832 0.898242 0.000000
N -0.428501 2.790157 0.000000
H 0.323567 3.340664 0.346569
H -1.327164 3.070170 0.333980
