12
Benzene; experimental structure from HCP92; l
C  0.0000  1.3990 0.0000
C  1.2115  0.6995 0.0000
C  1.2115 -0.6995 0.0000
C  0.0000 -1.3990 0.0000
C -1.2115 -0.6995 0.0000
C -1.2115  0.6995 0.0000
H  0.0000  2.5000 0.0000
H  2.1651  1.2500 0.0000
H  2.1651 -1.2500 0.0000
H  0.0000 -2.5000 0.0000
H -2.1651 -1.2500 0.0000
H -2.1651  1.2500 0.0000
