15
Ethoxy ethane; experimental structure from kuc98; l
O  0.0000  0.0000  0.2696
C  0.0000  1.1705 -0.5184
C  0.0000 -1.1705 -0.5184
C  0.0000  2.3716  0.4082
C  0.0000 -2.3716  0.4082
H -0.8879  1.1870 -1.1676
H  0.8879  1.1870 -1.1676
H  0.8879 -1.1870 -1.1676
H -0.8879 -1.1870 -1.1676
H  0.0000  3.2961 -0.1729
H  0.0000 -3.2961 -0.1729
H  0.8840  2.3552  1.0456
H -0.8840  2.3552  1.0456
H -0.8840 -2.3552  1.0456
H  0.8840 -2.3552  1.0456
