17
Pentasilane; def2-QZVP pbe optimized; m
Si   -0.0048335   -3.8969717   -0.5238439 
H     1.1887767   -3.9134075   -1.4252499 
H     0.0223993   -5.1288186    0.3252902 
H    -1.2385400   -3.9282984   -1.3688912 
Si    0.0104464   -1.9536989    0.7969029 
Si   -0.0004053    0.0000130   -0.5100885 
H    -1.1904082   -1.9457891    1.6943990 
H     1.2296666   -1.9529052    1.6693294 
Si   -0.0104987    1.9536727    0.7969268 
H    -1.2088685   -0.0034247   -1.3978287 
H     1.2088478    0.0037073   -1.3964714 
Si    0.0051940    3.8969653   -0.5238481 
H    -0.0191436    5.1288161    0.3253672 
H     1.2377333    3.9262510   -1.3707348 
H    -1.1896928    3.9156075   -1.4234610 
H     1.1910193    1.9496877    1.6935745 
H    -1.2290887    1.9491200    1.6702050 
