15
Tuloene; structure from HCP92; l
C -1.091600 -0.874900 0.000000
C 0.211900 -1.382800 0.000000
C 1.303400 -0.507900 0.000000
C 1.091600 0.874900 0.000000
C -0.211900 1.382700 0.000000
C -1.303500 0.507800 0.000000
H -1.957699 -1.569142 0.000000
H 0.380087 -2.479984 0.000000
H 1.957699 1.569142 0.000000
H -0.380072 2.479886 0.000000
H -2.337729 0.910876 0.000000
C 2.723481 -1.061023 0.000000
H 3.397184 -0.350813 0.523286
H 2.739366 -2.039786 0.523326
H 3.068240 -1.195306 -1.046523
